
**** 12/03/23 19:25:06 ******* PSpice 17.4.0 (Nov 2018) ******* ID# 0 ********

 ** Profile: "EVM_switching_tb-trans"  [ C:\Users\dwegg\Desktop\Inverter\HW\Simulations\GD_UCC21710\ucc21710-pspicefiles\evm_switchin


 ****     CIRCUIT DESCRIPTION


******************************************************************************




** Creating circuit file "trans.cir" 
** WARNING: THIS AUTOMATICALLY GENERATED FILE MAY BE OVERWRITTEN BY SUBSEQUENT SIMULATIONS

*Libraries: 
* Profile Libraries :
* Local Libraries :
.LIB "../../../ucc21710_trans.lib" 
* From [PSPICE NETLIST] section of C:\cds_spb_home\cdssetup\OrCAD_PSpiceTIPSpice_Install\17.4.0\PSpice.ini file:
.lib "nom_pspti.lib" 
.lib "nom.lib" 

*Analysis directives: 
.TRAN  0 500u 0 10n SKIPBP 
.OPTIONS ADVCONV
.OPTIONS FILEMODELSEARCH
.OPTIONS ABSTOL= 1.0n
.OPTIONS ITL2= 40
.OPTIONS ITL4= 40
.OPTIONS VNTOL= 1.0m
.PROBE64 V(alias(*)) I(alias(*)) 
.INC "..\EVM_switching_tb.net" 



**** INCLUDING EVM_switching_tb.net ****
* source UCC21710
R_R5         RDY VCC  5k TC=0,0 
C_C2         N16764291 VDD  10u  TC=0,0 
V_V2         IN+ GND_EARTH  
+PULSE 0 5 0 5n 5n 1u 2u
R_R3         FLTB VCC  5k TC=0,0 
R_R14         GND_EARTH APWM  1Meg TC=0,0 
V_V5         N16766688 GND_EARTH  
+PWL 0 5 45u 5 45.1u 5 48u 5 48.1u 5 
R_R10         N16768107 N16768051  33.3333 TC=0,0 
R_R12         OUTL N16768175  3.3 TC=0,0 
V_V6         N16768051 0 600
R_R13         OUTH N16768175  3.3 TC=0,0 
C_C3         N16768175 0  10n  
C_C5         VCC GND_EARTH  1u  
X_U1         RDY IN+ GND_EARTH OUTH OUTL 0 N16766688 AIN N16778692 N16768175 0
+  VCC VDD N16764291 FLTB GND_EARTH UCC21710
R_R15         0 N16768175  10k TC=0,0 
X_M1         N16768107 N16768175 0 POWER_NMOS_P PARAMS: BVDSS=1200.0 IDSS=160U
+  VGS_TH=4.8 RDSON=0.005 GFS=44 CISS=14.5P COSS=0.4N CRSS=0.03N RG=1.9 VSD=3.3
+  QG=520N V_QG=10 TRR=45N
C_C6         APWM GND_EARTH  10n  
R_R16         N16778692 APWM  5 TC=0,0 
V_V11         VDD 0 18
V_V12         0 N16764291 2
C_C7         0 AIN  100n  TC=0,0 
R_R17         0 N16780588  5k TC=0,0 
R_R18         N16780588 AIN  100 TC=0,0 
V_V13         VCC GND_EARTH 5
C_C8         GND_EARTH 0  10p  TC=0,0 

**** RESUMING trans.cir ****
.END

ERROR(ORPSIM-15142): Node RDY is floating

ERROR(ORPSIM-15142): Node VCC is floating

ERROR(ORPSIM-15142): Node IN+ is floating

ERROR(ORPSIM-15142): Node GND_EARTH is floating

ERROR(ORPSIM-15142): Node FLTB is floating

ERROR(ORPSIM-15142): Node APWM is floating

ERROR(ORPSIM-15142): Node N16766688 is floating

ERROR(ORPSIM-15142): Node N16778692 is floating

ERROR(ORPSIM-15142): Node X_U1.N19024743 is floating
