LTspice 24.0.9 for Windows
Circuit: * C:\Users\dwegg\Desktop\Inverter\HW\Simulations\VDC_AD8479\AD8479.asc
Start Time: Sat Feb 10 13:02:29 2024
solver = Normal
Maximum thread count: 12
tnom = 27
temp = 27
method = modified trap
Direct Newton iteration for .op point succeeded.
Total elapsed time: 0.079 seconds.

